9
2009 Izak (UCCSD(T)/cc-pVTZ optimized structure)
C 0.000000 0.000000 0.000000
C 0.000000 0.000000 1.338046
H 0.923527 0.000000 -0.565162
H -0.928282 0.001427 -0.561212
H 0.951542 -0.002100 1.862874
C -1.238315 0.003137 2.188068
H -1.267906 -0.874284 2.839733
H -2.137098 0.002112 1.568848
H -1.266698 0.884124 2.835031
