 15

C    1.910594   1.401493  -0.015143
C    0.699712   2.299510   0.314511
C   -0.543062   1.437271   0.003152
C   -0.011127   0.034948   0.033325
C    1.345714   0.008200   0.118433
H    2.260012   1.547150  -1.047715
H    2.753527   1.569735   0.656755
H    0.707502   3.236942  -0.242547
H    0.713813   2.529934   1.379599
H   -1.355332   1.593015   0.716441
H   -0.952181   1.651836  -0.992250
H   -0.640109  -0.844989  -0.008903
H    1.949180  -0.881765  -0.003583
O    1.196738   0.011979   2.154200
H    0.732239  -0.854486   2.284375