 15

C   -0.100433   1.195431  -0.189285
C   -0.787703   0.358580   0.887402
C   -0.923034  -1.023698   0.261756
C    0.259948  -1.095572  -0.643109
C    0.893619   0.235595  -0.835825
H   -0.845398   1.520664  -0.926004
H    0.378118   2.081132   0.239930
H   -1.755724   0.775896   1.180749
H   -0.158439   0.308958   1.784891
H   -0.910073  -1.811952   1.018816
H   -1.844220  -1.103647  -0.324012
H    0.600460  -1.996460  -1.131732
H    1.063480   0.474266  -1.888676
O    2.131019   0.250745  -0.150271
H    1.998382  -0.169938   0.715369