15
Coordinates from ORCA-job neb_initial_path E   0.000000000000
  C       1.196479      0.385551     -0.450945
  C      -0.026585      1.262866     -0.154949
  C      -1.247274      0.383703     -0.456865
  C      -0.688444     -1.008458     -0.385968
  C       0.638948     -1.006462     -0.385051
  H       1.603786      0.572164     -1.448110
  H       2.009741      0.550421      0.255567
  H      -0.026585      2.190420     -0.723995
  H      -0.026569      1.532681      0.901268
  H      -2.067877      0.550825      0.241020
  H      -1.647168      0.568538     -1.457412
  H      -1.304229     -1.898500     -0.396552
  H       1.258318     -1.894110     -0.392285
  O       0.291365     -1.086592      2.898460
  H       0.036095     -1.103048      1.955815
15
Coordinates from ORCA-job neb_initial_path E   0.000000000000
  C       1.189815      0.383682     -0.420417
  C      -0.033439      1.265374     -0.145567
  C      -1.248747      0.387884     -0.471600
  C      -0.706834     -1.007682     -0.370218
  C       0.636362     -1.008396     -0.315343
  H       1.586319      0.539633     -1.426937
  H       2.008542      0.565915      0.274703
  H      -0.020208      2.192560     -0.715129
  H      -0.052900      1.537168      0.910129
  H      -2.091763      0.570293      0.195210
  H      -1.613409      0.559510     -1.488385
  H      -1.326343     -1.895130     -0.373748
  H       1.253441     -1.893939     -0.384889
  O       0.411723     -1.122937      2.807597
  H       0.007441     -1.073935      1.924596
15
Coordinates from ORCA-job neb_initial_path E   0.000000000000
  C       1.183731      0.381381     -0.393407
  C      -0.039400      1.267038     -0.138098
  C      -1.249389      0.390635     -0.484814
  C      -0.722014     -1.006851     -0.356276
  C       0.634822     -1.010215     -0.249155
  H       1.571226      0.511249     -1.406898
  H       2.006746      0.578962      0.291843
  H      -0.014840      2.193779     -0.708111
  H      -0.075863      1.541270      0.916729
  H      -2.111307      0.586190      0.153834
  H      -1.583309      0.550848     -1.514438
  H      -1.344049     -1.892418     -0.354623
  H       1.248221     -1.891390     -0.375860
  O       0.528605     -1.166750      2.698908
  H      -0.033181     -1.033727      1.920368
15
Coordinates from ORCA-job neb_initial_path E   0.000000000000
  C       1.178004      0.378473     -0.368648
  C      -0.044616      1.268002     -0.131840
  C      -1.249218      0.392003     -0.496326
  C      -0.734500     -1.005868     -0.340477
  C       0.634093     -1.012040     -0.182615
  H       1.557554      0.485570     -1.387554
  H       2.004764      0.590519      0.307370
  H      -0.010199      2.194217     -0.702323
  H      -0.096256      1.545152      0.921824
  H      -2.127479      0.599211      0.116310
  H      -1.555698      0.542124     -1.536403
  H      -1.358075     -1.890126     -0.336927
  H       1.242564     -1.886652     -0.365992
  O       0.628966     -1.212335      2.566480
  H      -0.069903     -0.988251      1.937121
15
Coordinates from ORCA-job neb_initial_path E   0.000000000000
  C       1.172487      0.374937     -0.344870
  C      -0.049299      1.268342     -0.126038
  C      -1.248196      0.392043     -0.506270
  C      -0.745029     -1.004569     -0.320743
  C       0.634130     -1.014035     -0.114954
  H       1.544523      0.461136     -1.368272
  H       2.002815      0.601542      0.321836
  H      -0.005916      2.193925     -0.697073
  H      -0.115279      1.548610      0.926234
  H      -2.141115      0.610020      0.081436
  H      -1.528962      0.532779     -1.555318
  H      -1.369661     -1.887804     -0.318856
  H       1.236268     -1.879681     -0.356409
  O       0.705405     -1.254100      2.412572
  H      -0.092170     -0.943145      1.966724
15
Coordinates from ORCA-job neb_initial_path E   0.000000000000
  C       1.166900      0.370922     -0.320653
  C      -0.053875      1.268164     -0.119841
  C      -1.246437      0.391073     -0.515438
  C      -0.754858     -1.002822     -0.297182
  C       0.634643     -1.016425     -0.047405
  H       1.531250      0.436278     -1.348141
  H       2.000797      0.612883      0.336083
  H      -0.001553      2.193024     -0.691441
  H      -0.134664      1.551149      0.930888
  H      -2.153273      0.619702      0.046828
  H      -1.501052      0.522363     -1.572814
  H      -1.380846     -1.884803     -0.299085
  H       1.228833     -1.870636     -0.347719
  O       0.757115     -1.287440      2.243968
  H      -0.092978     -0.903433      2.001952
15
Coordinates from ORCA-job neb_initial_path E   0.000000000000
  C       1.160915      0.366725     -0.295104
  C      -0.058822      1.267645     -0.112704
  C      -1.244228      0.389599     -0.524825
  C      -0.765285     -1.000480     -0.271180
  C       0.635011     -1.019245      0.017949
  H       1.517077      0.409940     -1.326480
  H       1.998373      0.624851      0.350821
  H       0.003150      2.191733     -0.684729
  H      -0.155753      1.552407      0.936373
  H      -2.164885      0.629420      0.010042
  H      -1.470547      0.510721     -1.590346
  H      -1.393431     -1.880658     -0.276998
  H       1.219737     -1.859966     -0.339860
  O       0.787643     -1.310006      2.070315
  H      -0.068956     -0.872688      2.036727
15
Coordinates from ORCA-job neb_initial_path E   0.000000000000
  C       1.154201      0.362591     -0.267763
  C      -0.064539      1.266952     -0.104323
  C      -1.241910      0.388131     -0.535131
  C      -0.777374     -0.997314     -0.244100
  C       0.634517     -1.022361      0.079733
  H       1.501380      0.381512     -1.302856
  H       1.995251      0.637208      0.366450
  H       0.008285      2.190273     -0.676428
  H      -0.179190      1.552246      0.942999
  H      -2.176599      0.640217     -0.030823
  H      -1.436768      0.497941     -1.608658
  H      -1.408596     -1.875066     -0.252339
  H       1.208679     -1.848265     -0.331679
  O       0.803347     -1.320530      1.900385
  H      -0.020682     -0.853535      2.064534
15
Coordinates from ORCA-job neb_initial_path E   0.000000000000
  C       1.146626      0.358551     -0.238976
  C      -0.071103      1.266186     -0.094763
  C      -1.239767      0.386974     -0.546328
  C      -0.791296     -0.993136     -0.216774
  C       0.633032     -1.025651      0.138300
  H       1.483893      0.351188     -1.277465
  H       1.991431      0.649337      0.382649
  H       0.013741      2.188822     -0.666418
  H      -0.204477      1.550918      0.950671
  H      -2.188452      0.652500     -0.075944
  H      -1.400298      0.484435     -1.627344
  H      -1.426274     -1.868001     -0.225341
  H       1.195914     -1.836385     -0.321093
  O       0.810654     -1.318221      1.738963
  H       0.046374     -0.847516      2.079861
15
Coordinates from ORCA-job neb_initial_path E   0.000000000000
  C       1.138377      0.354391     -0.209744
  C      -0.078201      1.265280     -0.084399
  C      -1.237841      0.385992     -0.557681
  C      -0.806035     -0.987949     -0.189310
  C       0.631562     -1.029300      0.195013
  H       1.464904      0.319850     -1.251101
  H       1.987193      0.660645      0.398506
  H       0.019288      2.187383     -0.654981
  H      -0.230327      1.548819      0.958998
  H      -2.199779      0.665732     -0.123545
  H      -1.362652      0.470729     -1.645128
  H      -1.445164     -1.859644     -0.196682
  H       1.182359     -1.825238     -0.306715
  O       0.812018     -1.302298      1.585970
  H       0.124296     -0.854391      2.080799
