13

  C           1.88706598930691      1.41602369445877     -0.00660076686354
  C           0.66400144246895      2.29333915471941      0.28939451284397
  C          -0.55668755067100      1.41417603634649     -0.01252109023750
  C           0.00214238360111      0.02201492667277      0.05837608667723
  C           1.32953432295392      0.02401066541468      0.05929329629878
  H           2.29437238189121      1.60263623844294     -1.00376570758471
  H           2.70032784902086      1.58089407502487      0.69991040496066
  H           0.66400182423206      3.22089238745327     -0.27965100447480
  H           0.66401785366477      2.56315352197893      1.34561158539335
  H          -1.37729075497421      1.58129756222248      0.68536415630544
  H          -0.95658112359223      1.59901075849081     -1.01306829151556
  H          -0.61364261061282     -0.86802748959877      0.04779165944795
  H           1.94890433566274     -0.86363707411198      0.05205914238249
